casefile/temp/WECC240_v03_Mod_NewMVA_month_3_day_6_hour_8_step2_addgen_solved.raw
@!IC, SBASE,REV,XFRRAT,NXFRAT,BASFRQ
0,   100.00, 34,     0,     1, 60.00     / PSS(R)E-34.8    MON, MAR 21 2022  15:57
WECC 240 SYSTEM, V0.2,  MODIFIED BY NREL, INTERNAL USE ONLY
CONTACT: HAOYU.YUAN@NREL.GOV
GENERAL, THRSHZ=0.0001, PQBRAK=0.7, BLOWUP=5.0
GAUSS, ITMX=100, ACCP=1.6, ACCQ=1.6, ACCM=1.0, TOL=0.0001
NEWTON, ITMXN=300, ACCN=1.0, TOLN=0.1, VCTOLQ=0.1, VCTOLV=0.00001, DVLIM=0.99, NDVFCT=0.99
ADJUST, ADJTHR=0.005, ACCTAP=1.0, TAPLIM=0.05, SWVBND=100.0, MXTPSS=99, MXSWIM=10
TYSL, ITMXTY=20, ACCTY=1.0, TOLTY=0.00001
SOLVER, FNSL, ACTAPS=0, AREAIN=0, PHSHFT=0, DCTAPS=1, SWSHNT=1, FLATST=1, VARLIM=0
RATING, 1, "RATE1 ", "RATING SET 1                    "
RATING, 2, "RATE2 ", "RATING SET 2                    "
RATING, 3, "RATE3 ", "RATING SET 3                    "
RATING, 4, "RATE4 ", "RATING SET 4                    "
RATING, 5, "RATE5 ", "RATING SET 5                    "
RATING, 6, "RATE6 ", "RATING SET 6                    "
RATING, 7, "RATE7 ", "RATING SET 7                    "
RATING, 8, "RATE8 ", "RATING SET 8                    "
RATING, 9, "RATE9 ", "RATING SET 9                    "
RATING,10, "RATE10", "RATING SET 10                   "
RATING,11, "RATE11", "RATING SET 11                   "
RATING,12, "RATE12", "RATING SET 12                   "
0 / END OF SYSTEM-WIDE DATA, BEGIN BUS DATA
@!   I,'NAME        ', BASKV, IDE,AREA,ZONE,OWNER, VM,        VA,    NVHI,   NVLO,   EVHI,   EVLO
  1001,'FOURCORN    ', 500.0000,1,   1,   3,   1,1.01988,   3.9855,1.10000,0.90000,1.10000,0.90000
  1002,'FOURCORN    ', 345.0000,1,   1,   3,   1,1.01400,   5.2642,1.10000,0.90000,1.10000,0.90000
  1003,'FOURCORN    ', 230.0000,2,   1,  10,   1,1.00000,   1.5354,1.10000,0.90000,1.10000,0.90000
  1004,'SAN JUAN    ', 345.0000,2,   1,  10,   1,1.00000,  11.8294,1.10000,0.90000,1.10000,0.90000
  1032,'FCNGN4CC    ',  20.0000,2,   1,  10,   1,1.01827,   5.4882,1.10000,0.90000,1.10000,0.90000
  1034,'SJUAN G4    ',  20.0000,2,   1,  10,   1,0.99883,  12.4412,1.10000,0.90000,1.10000,0.90000
  1101,'CORONADO    ', 500.0000,2,   1,   3,   1,1.00000, -11.9298,1.10000,0.90000,1.10000,0.90000
  1102,'CHOLLA      ', 345.0000,2,   1,   3,   1,1.00000,  -4.8270,1.10000,0.90000,1.10000,0.90000
  1131,'CORONADO    ',  20.0000,2,   1,   3,   1,1.00015, -11.8572,1.10000,0.90000,1.10000,0.90000
  1201,'MOENKOPI    ', 500.0000,2,   1,   3,   1,1.00000,  -1.9859,1.10000,0.90000,1.10000,0.90000
  1202,'NAVAJO      ', 500.0000,2,   1,   3,   1,1.00000,  -0.3358,1.10000,0.90000,1.10000,0.90000
  1232,'NAVAJO 2    ',  20.0000,3,   1,   3,   1,1.08000,   0.0000,1.10000,0.90000,1.10000,0.90000
  1301,'MEAD        ', 500.0000,2,   1,   3,   1,1.00000,  -5.2201,1.10000,0.90000,1.10000,0.90000
  1302,'H ALLEN     ', 500.0000,2,   1,   9,   1,1.00000,   1.2930,1.10000,0.90000,1.10000,0.90000
  1303,'H ALLEN     ', 345.0000,1,   1,   9,   1,1.00500,   4.0537,1.10000,0.90000,1.10000,0.90000
  1331,'HOOVER      ',  20.0000,2,   1,   3,   1,0.99932,  -4.8758,1.10000,0.90000,1.10000,0.90000
  1333,'H ALLEN     ',  20.0000,2,   1,   9,   1,1.00395,   4.9224,1.10000,0.90000,1.10000,0.90000
  1401,'PALOVRDE    ', 500.0000,2,   1,   3,   1,1.00000, -12.0033,1.10000,0.90000,1.10000,0.90000
  1402,'WESTWING    ', 500.0000,2,   1,   3,   1,1.00000, -12.4088,1.10000,0.90000,1.10000,0.90000
  1403,'PARKER      ', 230.0000,2,   1,   3,   1,1.00000, -11.7590,1.10000,0.90000,1.10000,0.90000
  1431,'PALOVRD2    ',  20.0000,2,   1,   3,   1,0.99745, -11.2096,1.10000,0.90000,1.10000,0.90000
  2000,'MEXICO      ', 230.0000,2,   4,   7,   1,1.00000, -28.8882,1.10000,0.90000,1.10000,0.90000
  2030,'MEXICO      ',  20.0000,2,   4,   7,   1,1.00000, -28.8882,1.10000,0.90000,1.10000,0.90000
  2100,'IMPERIAL    ', 230.0000,2,   2,   2,   1,1.00000, -10.4942,1.10000,0.90000,1.10000,0.90000
  2130,'IMPERIAL    ',  20.0000,2,   2,   2,   1,0.99981, -10.3611,1.10000,0.90000,1.10000,0.90000
  2201,'MIGUEL      ', 500.0000,2,   2,   2,   1,1.00000, -19.1534,1.10000,0.90000,1.10000,0.90000
  2202,'MIGUEL      ', 230.0000,1,   2,   2,   1,1.00101, -19.9904,1.10000,0.90000,1.10000,0.90000
  2203,'MISSION     ', 230.0000,2,   2,   2,   1,1.00000, -19.3038,1.10000,0.90000,1.10000,0.90000
  2233,'MISSION     ',  20.0000,2,   2,   2,   1,1.00000, -19.3038,1.10000,0.90000,1.10000,0.90000
  2301,'IMPRLVLY    ', 500.0000,2,   2,   2,   1,1.00000, -10.5742,1.10000,0.90000,1.10000,0.90000
  2302,'IMPRLVLY    ', 230.0000,1,   2,   2,   1,1.01023,  -9.6175,1.10000,0.90000,1.10000,0.90000
  2332,'IMPRLVLY    ',  20.0000,2,   2,   2,   1,1.01284,  -9.2484,1.10000,0.90000,1.10000,0.90000
  2400,'DEVERS      ', 500.0000,2,   2,   2,   1,1.00000, -12.2759,1.10000,0.90000,1.10000,0.90000
  2401,'LUGO        ', 500.0000,2,   2,   2,   1,1.00000,  -2.7925,1.10000,0.90000,1.10000,0.90000
  2402,'MIRALOMA    ', 500.0000,2,   2,   2,   1,1.00000,  -4.2696,1.10000,0.90000,1.10000,0.90000
  2403,'VALLEY      ', 500.0000,2,   2,   2,   1,1.00000, -10.9459,1.10000,0.90000,1.10000,0.90000
  2404,'VINCENT     ', 500.0000,2,   2,   2,   1,1.00000,   3.4992,1.10000,0.90000,1.10000,0.90000
  2405,'SYLMAR S    ', 230.0000,2,   2,   2,   1,1.00000,  -7.9482,1.10000,0.90000,1.10000,0.90000
  2406,'EAGLROCK    ', 230.0000,2,   2,   2,   1,1.00000,  -3.6970,1.10000,0.90000,1.10000,0.90000
  2407,'LITEHIPE    ', 230.0000,2,   2,   2,   1,1.00000,   0.7785,1.10000,0.90000,1.10000,0.90000
  2408,'MESA CAL    ', 230.0000,2,   2,   2,   1,1.00000,   8.7617,1.10000,0.90000,1.10000,0.90000
  2409,'MIRALOMA    ', 230.0000,1,   2,   2,   1,1.01844,  -2.2824,1.10000,0.90000,1.10000,0.90000
  2410,'PARDEE      ', 230.0000,2,   2,   2,   1,1.00000,  -7.8854,1.10000,0.90000,1.10000,0.90000
  2411,'VINCENT     ', 230.0000,1,   2,   2,   1,0.99911,   0.9247,1.10000,0.90000,1.10000,0.90000
  2431,'LUGO        ',  20.0000,2,   2,   2,   1,1.00000,  -2.7925,1.10000,0.90000,1.10000,0.90000
  2434,'VINCENT     ',  20.0000,2,   2,   2,   1,0.99911,   0.9247,1.10000,0.90000,1.10000,0.90000
  2438,'MESA CAL    ',  20.0000,2,   2,   2,   1,1.00008,  10.1820,1.10000,0.90000,1.10000,0.90000
  2439,'MIRALOMA    ',  20.0000,2,   2,   2,   1,1.01910,  -2.1915,1.10000,0.90000,1.10000,0.90000
  2501,'SERRANO     ', 500.0000,2,   2,   2,   1,1.00000,  -6.2578,1.10000,0.90000,1.10000,0.90000
  2502,'SERRANO     ', 230.0000,1,   2,   2,   1,0.99752,  -6.5916,1.10000,0.90000,1.10000,0.90000
  2503,'S.ONOFRE    ', 230.0000,2,   2,   2,   1,1.00000,  -9.4148,1.10000,0.90000,1.10000,0.90000
  2533,'S.ONOFRE    ',  20.0000,2,   2,   2,   1,0.99972,  -8.8482,1.10000,0.90000,1.10000,0.90000
  2600,'ADELANTO    ', 500.0000,2,   2,   2,   1,1.00000,  -3.3390,1.10000,0.90000,1.10000,0.90000
  2601,'RINALDI     ', 500.0000,2,   2,   2,   1,1.00000,  -5.6160,1.10000,0.90000,1.10000,0.90000
  2602,'STA E       ', 500.0000,2,   2,   2,   1,1.00000,  -9.3361,1.10000,0.90000,1.10000,0.90000
  2603,'VICTORVL    ', 500.0000,2,   2,   2,   1,1.00000,  -3.4540,1.10000,0.90000,1.10000,0.90000
  2604,'INTERMT     ', 345.0000,2,   2,   2,   1,1.00000,  21.1225,1.10000,0.90000,1.10000,0.90000
  2605,'STA B1      ', 287.0000,1,   2,   2,   1,0.99729, -12.7872,1.10000,0.90000,1.10000,0.90000
  2606,'STA B2      ', 287.0000,1,   2,   2,   1,0.99729, -12.7872,1.10000,0.90000,1.10000,0.90000
  2607,'VICTORVL    ', 287.0000,1,   2,   2,   1,1.00613,  -6.9179,1.10000,0.90000,1.10000,0.90000
  2608,'CASTAIC     ', 230.0000,2,   2,   2,   1,1.00000,  -9.2775,1.10000,0.90000,1.10000,0.90000
  2609,'GLENDAL     ', 230.0000,2,   2,   2,   1,1.00000, -12.5712,1.10000,0.90000,1.10000,0.90000
  2610,'HAYNES      ', 230.0000,2,   2,   2,   1,1.00000, -14.2215,1.10000,0.90000,1.10000,0.90000
  2611,'OLIVE       ', 230.0000,2,   2,   2,   1,1.00000,  -9.1080,1.10000,0.90000,1.10000,0.90000
  2612,'RINALDI     ', 230.0000,1,   2,   2,   1,1.00112,  -8.8919,1.10000,0.90000,1.10000,0.90000
  2613,'RIVER       ', 230.0000,2,   2,   2,   1,1.00000, -14.0074,1.10000,0.90000,1.10000,0.90000
  2614,'STA BLD     ', 230.0000,1,   2,   2,   1,0.99876, -14.1477,1.10000,0.90000,1.10000,0.90000
  2615,'STA E       ', 230.0000,1,   2,   2,   1,1.00070, -11.4961,1.10000,0.90000,1.10000,0.90000
  2616,'STA F       ', 230.0000,1,   2,   2,   1,0.99991, -14.0211,1.10000,0.90000,1.10000,0.90000
  2617,'STA G       ', 230.0000,1,   2,   2,   1,1.00037, -13.0349,1.10000,0.90000,1.10000,0.90000
  2618,'STA J       ', 230.0000,1,   2,   2,   1,0.99852,  -9.8476,1.10000,0.90000,1.10000,0.90000
  2619,'SYLMARLA    ', 230.0000,1,   2,   2,   1,1.00108,  -7.8204,1.10000,0.90000,1.10000,0.90000
  2620,'VALLEY      ', 230.0000,1,   2,   2,   1,1.00067, -10.1748,1.10000,0.90000,1.10000,0.90000
  2621,'STA B       ', 138.0000,1,   2,   2,   1,0.99590, -13.8870,1.10000,0.90000,1.10000,0.90000
  2630,'HAYNES3G    ',  20.0000,2,   2,   2,   1,1.00000, -14.2215,1.10000,0.90000,1.10000,0.90000
  2631,'OLIVE       ',  20.0000,2,   2,   2,   1,1.00000,  -9.1080,1.10000,0.90000,1.10000,0.90000
  2634,'INTERM1G    ',  20.0000,2,   2,   2,   1,1.00015,  21.2152,1.10000,0.90000,1.10000,0.90000
  2637,'OWENS G     ',  20.0000,2,   2,   2,   1,1.00130,  -8.8862,1.10000,0.90000,1.10000,0.90000
  2638,'CASTAI4G    ',  20.0000,2,   2,   2,   1,1.00000,  -9.2775,1.10000,0.90000,1.10000,0.90000
  2901,'ELDORADO    ', 500.0000,2,   2,   2,   1,1.00000,  -2.7559,1.10000,0.90000,1.10000,0.90000
  2902,'MOHAVE      ', 500.0000,2,   2,   2,   1,1.00000,  -2.7673,1.10000,0.90000,1.10000,0.90000
  3101,'EMBRCDRD    ', 230.0000,2,   2,   2,   1,1.00000,  12.1473,1.10000,0.90000,1.10000,0.90000
  3102,'MARTIN      ', 230.0000,2,   2,   2,   1,1.00000,  13.0386,1.10000,0.90000,1.10000,0.90000
  3103,'SANMATEO    ', 230.0000,2,   2,   2,   1,1.00000,  14.4716,1.10000,0.90000,1.10000,0.90000
  3104,'MARTIN      ', 115.0000,1,   2,   2,   1,1.00336,   8.8843,1.10000,0.90000,1.10000,0.90000
  3105,'POTRERO     ', 115.0000,2,   2,   2,   1,1.00000,   8.5284,1.10000,0.90000,1.10000,0.90000
  3133,'SANMATEO    ',  20.0000,2,   2,   2,   1,1.00000,  14.4716,1.10000,0.90000,1.10000,0.90000
  3135,'POTRERO     ',  20.0000,2,   2,   2,   1,0.99987,   8.5697,1.10000,0.90000,1.10000,0.90000
  3201,'C.COSTA     ', 230.0000,2,   2,   2,   1,1.00000,  17.1133,1.10000,0.90000,1.10000,0.90000
  3202,'MORAGA      ', 230.0000,2,   2,   2,   1,1.00000,  16.8193,1.10000,0.90000,1.10000,0.90000
  3203,'NEWARK      ', 230.0000,2,   2,   2,   1,1.00000,  16.3322,1.10000,0.90000,1.10000,0.90000
  3204,'PITSBURG    ', 230.0000,2,   2,   2,   1,1.00000,  17.0894,1.10000,0.90000,1.10000,0.90000
  3205,'SOBRANTE    ', 230.0000,2,   2,   2,   1,1.00000,  18.1900,1.10000,0.90000,1.10000,0.90000
  3234,'PITSBURG    ',  20.0000,2,   2,   2,   1,0.99948,  17.2951,1.10000,0.90000,1.10000,0.90000
  3301,'METCALF     ', 500.0000,2,   2,   2,   1,1.00000,  17.9562,1.10000,0.90000,1.10000,0.90000
  3302,'JEFFERSN    ', 230.0000,2,   2,   2,   1,1.00000,  13.1366,1.10000,0.90000,1.10000,0.90000
  3303,'METCALF     ', 230.0000,1,   2,   2,   1,1.00431,  15.4682,1.10000,0.90000,1.10000,0.90000
  3304,'MONTAVIS    ', 230.0000,1,   2,   2,   1,1.00396,  14.0119,1.10000,0.90000,1.10000,0.90000
  3305,'RAVENSWD    ', 230.0000,2,   2,   2,   1,1.00000,  15.0322,1.10000,0.90000,1.10000,0.90000
  3333,'METCALF     ',  20.0000,2,   2,   2,   1,1.00431,  15.4682,1.10000,0.90000,1.10000,0.90000
  3401,'GREGG       ', 230.0000,2,   2,   2,   1,1.00000,  10.4665,1.10000,0.90000,1.10000,0.90000
  3402,'HELMS PP    ', 230.0000,2,   2,   2,   1,1.00000,  10.4665,1.10000,0.90000,1.10000,0.90000
  3403,'MC CALL     ', 230.0000,2,   2,   2,   1,1.00000,  23.5837,1.10000,0.90000,1.10000,0.90000
  3404,'PANOCHE     ', 230.0000,2,   2,   2,   1,1.00000,  14.5926,1.10000,0.90000,1.10000,0.90000
  3405,'WILSON      ', 230.0000,2,   2,   2,   1,1.00000,   9.3966,1.10000,0.90000,1.10000,0.90000
  3432,'HELMS PP    ',  20.0000,2,   2,   2,   1,1.00000,  10.4665,1.10000,0.90000,1.10000,0.90000
  3433,'MC CALL     ',  20.0000,2,   2,   2,   1,0.99981,  23.9880,1.10000,0.90000,1.10000,0.90000
  3501,'FULTON      ', 230.0000,2,   2,   2,   1,1.00000,  38.1210,1.10000,0.90000,1.10000,0.90000
  3531,'FULTON      ',  20.0000,2,   2,   2,   1,0.99983,  38.6849,1.10000,0.90000,1.10000,0.90000
  3601,'HUMBOLDT    ', 115.0000,2,   2,   2,   1,1.00000,  28.2134,1.10000,0.90000,1.10000,0.90000
  3631,'HUMBOLDT    ',  20.0000,2,   2,   2,   1,0.99994,  28.2390,1.10000,0.90000,1.10000,0.90000
  3701,'SUMMIT      ', 115.0000,2,   1,   9,   1,1.00000,   7.5957,1.10000,0.90000,1.10000,0.90000
  3731,'SUMMIT      ',  20.0000,2,   1,   9,   1,0.99967,   7.6117,1.10000,0.90000,1.10000,0.90000
  3801,'DIABLO      ', 500.0000,2,   2,   2,   1,1.00000,  18.1608,1.10000,0.90000,1.10000,0.90000
  3802,'GATES       ', 500.0000,2,   2,   2,   1,1.00000,  11.9824,1.10000,0.90000,1.10000,0.90000
  3803,'MIDWAY      ', 500.0000,2,   2,   2,   1,1.00000,   8.4251,1.10000,0.90000,1.10000,0.90000
  3804,'GATES       ', 230.0000,1,   2,   2,   1,0.99891,  13.2632,1.10000,0.90000,1.10000,0.90000
  3805,'MIDWAY      ', 230.0000,1,   2,   2,   1,1.00625,   7.1627,1.10000,0.90000,1.10000,0.90000
  3806,'MORROBAY    ', 230.0000,2,   2,   2,   1,1.00000,   8.3348,1.10000,0.90000,1.10000,0.90000
  3831,'DIABLO1     ',  20.0000,2,   2,   2,   1,0.99958,  18.8266,1.10000,0.90000,1.10000,0.90000
  3835,'MIDWAY      ',  20.0000,2,   2,   2,   1,1.00625,   7.1627,1.10000,0.90000,1.10000,0.90000
  3836,'MORROBAY    ',  20.0000,2,   2,   2,   1,1.00000,   8.3348,1.10000,0.90000,1.10000,0.90000
  3891,'GATES1      ', 500.0000,2,   2,   2,   1,1.00000,   2.6589,1.10000,0.90000,1.10000,0.90000
  3892,'MIDWAY1     ', 500.0000,1,   2,   2,   1,0.98504,  14.0274,1.10000,0.90000,1.10000,0.90000
  3893,'MIDWAY2     ', 500.0000,1,   2,   2,   1,1.01393,  -1.8718,1.10000,0.90000,1.10000,0.90000
  3894,'MIDWAY3     ', 500.0000,1,   2,   2,   1,0.98472,  14.1215,1.10000,0.90000,1.10000,0.90000
  3895,'MIDWAY4     ', 500.0000,1,   2,   2,   1,1.01432,  -1.9054,1.10000,0.90000,1.10000,0.90000
  3896,'MIDWAY5     ', 500.0000,1,   2,   2,   1,0.98509,  14.4089,1.10000,0.90000,1.10000,0.90000
  3897,'MIDWAY6     ', 500.0000,1,   2,   2,   1,1.01491,  -1.6501,1.10000,0.90000,1.10000,0.90000
  3901,'LOSBANOS    ', 500.0000,2,   2,   2,   1,1.00000,  15.7799,1.10000,0.90000,1.10000,0.90000
  3902,'MOSSLAND    ', 500.0000,2,   2,   2,   1,1.00000,  20.2671,1.10000,0.90000,1.10000,0.90000
  3903,'TESLA       ', 500.0000,2,   2,   2,   1,1.00000,  20.1892,1.10000,0.90000,1.10000,0.90000
  3904,'VACA-DIX    ', 500.0000,2,   2,   2,   1,1.00000,  20.5829,1.10000,0.90000,1.10000,0.90000
  3905,'TABLE MT    ', 500.0000,2,   2,   2,   1,1.00000,  24.2499,1.10000,0.90000,1.10000,0.90000
  3906,'ROUND MT    ', 500.0000,2,   2,   2,   1,1.00000,  28.3052,1.10000,0.90000,1.10000,0.90000
  3907,'BELLOTA     ', 230.0000,2,   2,   2,   1,1.00000,  10.2457,1.10000,0.90000,1.10000,0.90000
  3908,'BRIGHTON    ', 230.0000,2,   2,   2,   1,1.00000,   9.4767,1.10000,0.90000,1.10000,0.90000
  3909,'COLGATE     ', 230.0000,2,   2,   2,   1,1.00000,  10.9387,1.10000,0.90000,1.10000,0.90000
  3910,'CORTINA     ', 230.0000,2,   2,   2,   1,1.00000,  16.0940,1.10000,0.90000,1.10000,0.90000
  3911,'COTWDPGE    ', 230.0000,2,   2,   2,   1,1.00000,  28.2348,1.10000,0.90000,1.10000,0.90000
  3912,'GLENN       ', 230.0000,2,   2,   2,   1,1.00000,  21.0446,1.10000,0.90000,1.10000,0.90000
  3913,'GOLDHILL    ', 230.0000,2,   2,   2,   1,1.00000,  11.8172,1.10000,0.90000,1.10000,0.90000
  3914,'IGNACIO     ', 230.0000,2,   2,   2,   1,1.00000,  26.8472,1.10000,0.90000,1.10000,0.90000
  3915,'LAKEVILE    ', 230.0000,2,   2,   2,   1,1.00000,  23.8600,1.10000,0.90000,1.10000,0.90000
  3916,'LOGAN CR    ', 230.0000,2,   2,   2,   1,1.00000,  20.3069,1.10000,0.90000,1.10000,0.90000
  3917,'LOSBANOS    ', 230.0000,1,   2,   2,   1,1.00322,  14.4085,1.10000,0.90000,1.10000,0.90000
  3918,'MOSSLAND    ', 230.0000,1,   2,   2,   1,1.00612,  16.2741,1.10000,0.90000,1.10000,0.90000
  3919,'PALERMO     ', 230.0000,2,   2,   2,   1,1.00000,  12.8546,1.10000,0.90000,1.10000,0.90000
  3920,'RIO OSO     ', 230.0000,2,   2,   2,   1,1.00000,  10.8623,1.10000,0.90000,1.10000,0.90000
  3921,'ROUND MT    ', 230.0000,1,   2,   2,   1,1.07000,  33.9724,1.10000,0.90000,1.10000,0.90000
  3922,'TABLE MT    ', 230.0000,1,   2,   2,   1,1.00087,  16.7595,1.10000,0.90000,1.10000,0.90000
  3923,'TESLA       ', 230.0000,2,   2,   2,   1,1.01784,  19.2352,1.10000,0.90000,1.10000,0.90000
  3924,'VACA-DIX    ', 230.0000,1,   2,   2,   1,1.00170,  18.3057,1.10000,0.90000,1.10000,0.90000
  3925,'COTWDPGE    ', 115.0000,1,   2,   2,   1,1.00113,  28.2194,1.10000,0.90000,1.10000,0.90000
  3926,'RIO OSO     ', 115.0000,1,   2,   2,   1,1.00167,   8.4901,1.10000,0.90000,1.10000,0.90000
  3931,'ROUND MT    ',  20.0000,2,   2,   2,   1,1.07330,  34.2786,1.10000,0.90000,1.10000,0.90000
  3932,'MOSSLAND    ',  20.0000,2,   2,   2,   1,0.99985,  20.6713,1.10000,0.90000,1.10000,0.90000
  3933,'TESLA       ',  20.0000,2,   2,   2,   1,1.02000,  19.9020,1.10000,0.90000,1.10000,0.90000
  4001,'MALIN       ', 500.0000,2,   3,  11,   1,1.00000,  30.1149,1.10000,0.90000,1.10000,0.90000
  4002,'SUMMER L    ', 500.0000,2,   3,  11,   1,1.00000,  33.4527,1.10000,0.90000,1.10000,0.90000
  4003,'BURNS       ', 500.0000,2,   3,  11,   1,1.00000,  38.0498,1.10000,0.90000,1.10000,0.90000
  4004,'GRIZZLY     ', 500.0000,2,   3,  11,   1,1.00000,  35.2897,1.10000,0.90000,1.10000,0.90000
  4005,'JOHN DAY    ', 500.0000,2,   3,  11,   1,1.00000,  41.0668,1.10000,0.90000,1.10000,0.90000
  4006,'BIG EDDY    ', 500.0000,2,   3,  11,   1,1.00000,  37.8699,1.10000,0.90000,1.10000,0.90000
  4007,'CELILOCA    ', 500.0000,2,   3,  11,   1,1.00000,  37.7511,1.10000,0.90000,1.10000,0.90000
  4008,'MALIN       ', 345.0000,1,   3,  11,   1,1.00608,  27.2222,1.10000,0.90000,1.10000,0.90000
  4009,'BIG EDDY    ', 230.0000,1,   3,  11,   1,1.03237,  36.1635,1.10000,0.90000,1.10000,0.90000
  4010,'CELILO      ', 230.0000,1,   3,  11,   1,1.02513,  36.0452,1.10000,0.90000,1.10000,0.90000
  4031,'MALIN       ',  20.0000,2,   3,  11,   1,0.99676,  30.6535,1.10000,0.90000,1.10000,0.90000
  4035,'JOHN DAY    ',  20.0000,2,   3,  11,   1,0.99847,  42.1399,1.10000,0.90000,1.10000,0.90000
  4039,'DALLES21    ',  20.0000,2,   3,  13,   1,1.04019,  36.6971,1.10000,0.90000,1.10000,0.90000
  4090,'MALIN1      ', 500.0000,1,   3,  11,   1,1.00132,  32.9581,1.10000,0.90000,1.10000,0.90000
  4091,'GRIZZLY1    ', 500.0000,1,   3,  11,   1,1.00366,  34.5140,1.10000,0.90000,1.10000,0.90000
  4092,'GRIZZLY2    ', 500.0000,1,   3,  11,   1,1.00954,  31.3821,1.10000,0.90000,1.10000,0.90000
  4093,'GRIZZLY3    ', 500.0000,1,   3,  11,   1,1.01078,  30.8846,1.10000,0.90000,1.10000,0.90000
  4094,'GRIZZLY4    ', 500.0000,1,   3,  11,   1,1.00323,  34.7198,1.10000,0.90000,1.10000,0.90000
  4095,'GRIZZLY5    ', 500.0000,1,   3,  11,   1,1.00922,  31.1644,1.10000,0.90000,1.10000,0.90000
  4096,'GRIZZLY6    ', 500.0000,1,   3,  11,   1,1.01049,  30.6388,1.10000,0.90000,1.10000,0.90000
  4097,'GRIZZLY7    ', 500.0000,1,   3,  11,   1,1.00298,  34.6907,1.10000,0.90000,1.10000,0.90000
  4101,'COULEE      ', 500.0000,2,   3,  13,   1,1.00000,  60.4237,1.10000,0.90000,1.10000,0.90000
  4102,'HANFORD     ', 500.0000,2,   3,  13,   1,1.00000,  50.0245,1.10000,0.90000,1.10000,0.90000
  4103,'BELL        ', 500.0000,2,   3,  13,   1,1.00000,  44.5569,1.10000,0.90000,1.10000,0.90000
  4104,'BELL        ', 230.0000,1,   3,  13,   1,1.01561,  34.3773,1.10000,0.90000,1.10000,0.90000
  4131,'COULEE      ',  20.0000,2,   3,  13,   1,0.99905,  62.6685,1.10000,0.90000,1.10000,0.90000
  4132,'HANFORD     ',  20.0000,2,   3,  13,   1,1.00023,  51.5307,1.10000,0.90000,1.10000,0.90000
  4201,'NORTH       ', 500.0000,2,   3,  13,   1,1.00000,  52.3315,1.10000,0.90000,1.10000,0.90000
  4202,'WCASCADE    ', 500.0000,2,   3,  13,   1,1.00000,  35.8563,1.10000,0.90000,1.10000,0.90000
  4203,'WILLAMET    ', 500.0000,2,   3,  13,   1,1.00000,  30.6880,1.10000,0.90000,1.10000,0.90000
  4204,'MERIDIAN    ', 500.0000,2,   3,  13,   1,1.00000,  28.9971,1.10000,0.90000,1.10000,0.90000
  4231,'NORTH G3    ',  20.0000,2,   3,  13,   1,1.00086,  52.7605,1.10000,0.90000,1.10000,0.90000
  4232,'WCASCADE    ',  20.0000,2,   3,  13,   1,0.99834,  36.0062,1.10000,0.90000,1.10000,0.90000
  5001,'CANADA      ', 500.0000,2,   3,   4,   1,1.00000,  82.5245,1.10000,0.90000,1.10000,0.90000
  5002,'CANALB      ', 500.0000,2,   3,   1,   1,1.00000,  88.1172,1.10000,0.90000,1.10000,0.90000
  5003,'CA230TO     ', 230.0000,2,   3,   1,   1,1.00000,  82.2819,1.10000,0.90000,1.10000,0.90000
  5004,'CA230       ', 230.0000,2,   3,   4,   1,1.00000,  58.0097,1.10000,0.90000,1.10000,0.90000
  5031,'CANAD G1    ',  20.0000,2,   3,   4,   1,0.99866,  84.6988,1.10000,0.90000,1.10000,0.90000
  5032,'CMAIN GM    ',  20.0000,2,   3,   1,   1,0.99593,  90.9385,1.10000,0.90000,1.10000,0.90000
  6101,'MIDPOINT    ', 500.0000,2,   3,   6,   1,1.00000,  43.3320,1.10000,0.90000,1.10000,0.90000
  6102,'MIDPOINT    ', 345.0000,1,   3,   6,   1,1.01998,  44.7098,1.10000,0.90000,1.10000,0.90000
  6103,'BORAH       ', 345.0000,2,   3,   6,   1,1.00000,  43.9620,1.10000,0.90000,1.10000,0.90000
...
0 / END OF BUS DATA, BEGIN LOAD DATA
@!   I,'ID',STAT,AREA,ZONE,      PL,        QL,        IP,        IQ,        YP,        YQ, OWNER,SCALE,INTRPT,  DGENP,     DGENQ, DGENF
  1002,'1 ',   1,   1,   3,    96.595,   251.967,     0.000,     0.000,     0.000,     0.000,   1,    1,  0,     0.000,     0.000,   0
  1003,'1 ',   1,   1,  10,   955.396,  -167.254,     0.000,     0.000,     0.000,     0.000,   1,    1,  0,     0.000,     0.000,   0
  1004,'1 ',   1,   1,  10,   435.118,    -2.247,     0.000,     0.000,     0.000,     0.000,   1,    1,  0,     0.000,     0.000,   0
  1101,'1 ',   1,   1,   3,  1935.497,    58.008,     0.000,     0.000,     0.000,     0.000,   1,    1,  0,     0.000,     0.000,   0
  1102,'1 ',   1,   1,   3,    77.667,   -10.323,     0.000,     0.000,     0.000,     0.000,   1,    1,  0,     0.000,     0.000,   0
  1201,'1 ',   1,   1,   3,    66.488,     0.739,     0.000,     0.000,     0.000,     0.000,   1,    1,  0,     0.000,     0.000,   0
  1202,'1 ',   1,   1,   3,   350.070,  -106.292,     0.000,     0.000,     0.000,     0.000,   1,    1,  0,     0.000,     0.000,   0
  1301,'1 ',   1,   1,   3,  1117.593,  -139.507,     0.000,     0.000,     0.000,     0.000,   1,    1,  0,     0.000,     0.000,   0
  1302,'1 ',   1,   1,   9,     7.378,    -0.943,     0.000,     0.000,     0.000,     0.000,   1,    1,  0,     0.000,     0.000,   0
  1303,'1 ',   1,   1,   9,  2678.848,  -347.707,     0.000,     0.000,     0.000,     0.000,   1,    1,  0,     0.000,     0.000,   0
  1401,'1 ',   1,   1,   3,  2726.523,  -614.528,     0.000,     0.000,     0.000,     0.000,   1,    1,  0,     0.000,     0.000,   0
  1402,'1 ',   1,   1,   3,  2190.967,   231.669,     0.000,     0.000,     0.000,     0.000,   1,    1,  0,     0.000,     0.000,   0
  2000,'1 ',   1,   4,   7,   901.000,  -117.531,     0.000,     0.000,     0.000,     0.000,   1,    1,  0,     0.000,     0.000,   0
  2100,'1 ',   1,   2,   2,   231.884,   -43.692,     0.000,     0.000,     0.000,     0.000,   1,    1,  0,     0.000,     0.000,   0
  2202,'1 ',   1,   2,   2,  1001.676,  -176.839,     0.000,     0.000,     0.000,     0.000,   1,    1,  0,     0.000,     0.000,   0
  2203,'1 ',   1,   2,   2,  1083.917,  -175.660,     0.000,     0.000,     0.000,     0.000,   1,    1,  0,     0.000,     0.000,   0
  2400,'1 ',   1,   2,   2,   496.821,   -44.133,     0.000,     0.000,     0.000,     0.000,   1,    1,  0,     0.000,     0.000,   0
  2401,'1 ',   1,   2,   2,   506.838,   -57.576,     0.000,     0.000,     0.000,     0.000,   1,    1,  0,     0.000,     0.000,   0
  2402,'1 ',   1,   2,   2,   632.534,   -46.637,     0.000,     0.000,     0.000,     0.000,   1,    1,  0,     0.000,     0.000,   0
  2403,'1 ',   1,   2,   2,   619.622,   -22.261,     0.000,     0.000,     0.000,     0.000,   1,    1,  0,     0.000,     0.000,   0
  2405,'1 ',   1,   2,   2,   491.947,   -13.516,     0.000,     0.000,     0.000,     0.000,   1,    1,  0,     0.000,     0.000,   0
  2406,'1 ',   1,   2,   2,   441.625,    24.242,     0.000,     0.000,     0.000,     0.000,   1,    1,  0,     0.000,     0.000,   0
  2407,'1 ',   1,   2,   2,  1078.860,    23.490,     0.000,     0.000,     0.000,     0.000,   1,    1,  0,     0.000,     0.000,   0
  2408,'1 ',   1,   2,   2,  1041.704,    43.009,     0.000,     0.000,     0.000,     0.000,   1,    1,  0,     0.000,     0.000,   0
  2409,'1 ',   1,   2,   2,   946.828,    50.243,     0.000,     0.000,     0.000,     0.000,   1,    1,  0,     0.000,     0.000,   0
  2410,'1 ',   1,   2,   2,   945.571,   -34.704,     0.000,     0.000,     0.000,     0.000,   1,    1,  0,     0.000,     0.000,   0
  2411,'1 ',   1,   2,   2,   642.770,   -43.999,     0.000,     0.000,     0.000,     0.000,   1,    1,  0,     0.000,     0.000,   0
  2502,'1 ',   1,   2,   2,  1173.485,    44.575,     0.000,     0.000,     0.000,     0.000,   1,    1,  0,     0.000,     0.000,   0
  2503,'1 ',   1,   2,   2,   925.434,  -100.363,     0.000,     0.000,     0.000,     0.000,   1,    1,  0,     0.000,     0.000,   0
  2600,'1 ',   1,   2,   2, -1092.421,     0.000,     0.000,     0.000,     0.000,     0.000,   1,    1,  0,     0.000,     0.000,   0
  2602,'1 ',   1,   2,   2,    79.047,   -10.105,     0.000,     0.000,     0.000,     0.000,   1,    1,  0,     0.000,     0.000,   0
  2604,'1 ',   1,   2,   2,  1230.210,     0.000,     0.000,     0.000,     0.000,     0.000,   1,    1,  0,     0.000,     0.000,   0
  2608,'1 ',   1,   2,   2,    79.497,   -10.220,     0.000,     0.000,     0.000,     0.000,   1,    1,  0,     0.000,     0.000,   0
  2609,'1 ',   1,   2,   2,   109.081,   -21.846,     0.000,     0.000,     0.000,     0.000,   1,    1,  0,     0.000,     0.000,   0
  2610,'1 ',   1,   2,   2,    80.367,   -10.446,     0.000,     0.000,     0.000,     0.000,   1,    1,  0,     0.000,     0.000,   0
  2611,'1 ',   1,   2,   2,    79.497,   -10.220,     0.000,     0.000,     0.000,     0.000,   1,    1,  0,     0.000,     0.000,   0
  2612,'1 ',   1,   2,   2,    96.328,   -19.635,     0.000,     0.000,     0.000,     0.000,   1,    1,  0,     0.000,     0.000,   0
  2613,'1 ',   1,   2,   2,   259.835,   -53.111,     0.000,     0.000,     0.000,     0.000,   1,    1,  0,     0.000,     0.000,   0
  2614,'1 ',   1,   2,   2,   111.214,   -22.537,     0.000,     0.000,     0.000,     0.000,   1,    1,  0,     0.000,     0.000,   0
  2615,'1 ',   1,   2,   2,   648.993,  -105.671,     0.000,     0.000,     0.000,     0.000,   1,    1,  0,     0.000,     0.000,   0
  2616,'1 ',   1,   2,   2,    94.813,   -19.532,     0.000,     0.000,     0.000,     0.000,   1,    1,  0,     0.000,     0.000,   0
  2617,'1 ',   1,   2,   2,    97.958,   -20.305,     0.000,     0.000,     0.000,     0.000,   1,    1,  0,     0.000,     0.000,   0
  2618,'1 ',   1,   2,   2,   708.641,     4.896,     0.000,     0.000,     0.000,     0.000,   1,    1,  0,     0.000,     0.000,   0
  2619,'1 ',   1,   2,   2, -1693.006,     0.000,     0.000,     0.000,     0.000,     0.000,   1,    1,  0,     0.000,     0.000,   0
  2620,'1 ',   1,   2,   2,   164.138,   -13.956,     0.000,     0.000,     0.000,     0.000,   1,    1,  0,     0.000,     0.000,   0
  2621,'1 ',   1,   2,   2,   189.116,    49.788,     0.000,     0.000,     0.000,     0.000,   1,    1,  0,     0.000,     0.000,   0
  3101,'1 ',   1,   2,   2,   242.989,   -38.395,     0.000,     0.000,     0.000,     0.000,   1,    1,  0,     0.000,     0.000,   0
  3102,'1 ',   1,   2,   2,   112.920,   -17.924,     0.000,     0.000,     0.000,     0.000,   1,    1,  0,     0.000,     0.000,   0
  3103,'1 ',   1,   2,   2,   278.434,   -39.956,     0.000,     0.000,     0.000,     0.000,   1,    1,  0,     0.000,     0.000,   0
  3104,'1 ',   1,   2,   2,   219.690,   -28.906,     0.000,     0.000,     0.000,     0.000,   1,    1,  0,     0.000,     0.000,   0
  3105,'1 ',   1,   2,   2,   166.889,   -34.236,     0.000,     0.000,     0.000,     0.000,   1,    1,  0,     0.000,     0.000,   0
  3201,'1 ',   1,   2,   2,   305.337,   -64.749,     0.000,     0.000,     0.000,     0.000,   1,    1,  0,     0.000,     0.000,   0
  3202,'1 ',   1,   2,   2,   387.140,   -55.274,     0.000,     0.000,     0.000,     0.000,   1,    1,  0,     0.000,     0.000,   0
  3203,'1 ',   1,   2,   2,   433.690,  -104.797,     0.000,     0.000,     0.000,     0.000,   1,    1,  0,     0.000,     0.000,   0
  3204,'1 ',   1,   2,   2,   436.183,   -61.548,     0.000,     0.000,     0.000,     0.000,   1,    1,  0,     0.000,     0.000,   0
  3205,'1 ',   1,   2,   2,   360.248,   -51.392,     0.000,     0.000,     0.000,     0.000,   1,    1,  0,     0.000,     0.000,   0
  3302,'1 ',   1,   2,   2,   231.560,   -58.561,     0.000,     0.000,     0.000,     0.000,   1,    1,  0,     0.000,     0.000,   0
  3303,'1 ',   1,   2,   2,   411.972,   -99.279,     0.000,     0.000,     0.000,     0.000,   1,    1,  0,     0.000,     0.000,   0
  3304,'1 ',   1,   2,   2,   355.546,   -82.679,     0.000,     0.000,     0.000,     0.000,   1,    1,  0,     0.000,     0.000,   0
  3305,'1 ',   1,   2,   2,   285.219,   -40.832,     0.000,     0.000,     0.000,     0.000,   1,    1,  0,     0.000,     0.000,   0
  3401,'1 ',   1,   2,   2,   283.520,   -72.026,     0.000,     0.000,     0.000,     0.000,   1,    1,  0,     0.000,     0.000,   0
  3403,'1 ',   1,   2,   2,   251.613,   -35.883,     0.000,     0.000,     0.000,     0.000,   1,    1,  0,     0.000,     0.000,   0
  3404,'1 ',   1,   2,   2,   216.934,   -31.160,     0.000,     0.000,     0.000,     0.000,   1,    1,  0,     0.000,     0.000,   0
  3405,'1 ',   1,   2,   2,   229.210,   -34.069,     0.000,     0.000,     0.000,     0.000,   1,    1,  0,     0.000,     0.000,   0
  3501,'1 ',   1,   2,   2,   436.200,   -62.124,     0.000,     0.000,     0.000,     0.000,   1,    1,  0,     0.000,     0.000,   0
  3601,'1 ',   1,   2,   2,    90.443,   -12.615,     0.000,     0.000,     0.000,     0.000,   1,    1,  0,     0.000,     0.000,   0
  3701,'1 ',   1,   1,   9,   278.500,   -13.920,     0.000,     0.000,     0.000,     0.000,   1,    1,  0,     0.000,     0.000,   0
  3801,'1 ',   1,   2,   2,   143.611,   -33.943,     0.000,     0.000,     0.000,     0.000,   1,    1,  0,     0.000,     0.000,   0
  3804,'1 ',   1,   2,   2,   176.666,   -43.818,     0.000,     0.000,     0.000,     0.000,   1,    1,  0,     0.000,     0.000,   0
  3805,'1 ',   1,   2,   2,   380.121,  -119.953,     0.000,     0.000,     0.000,     0.000,   1,    1,  0,     0.000,     0.000,   0
  3806,'1 ',   1,   2,   2,   223.886,   -31.385,     0.000,     0.000,     0.000,     0.000,   1,    1,  0,     0.000,     0.000,   0
  3902,'1 ',   1,   2,   2,    94.794,   -23.699,     0.000,     0.000,     0.000,     0.000,   1,    1,  0,     0.000,     0.000,   0
  3903,'1 ',   1,   2,   2,   131.318,   -18.526,     0.000,     0.000,     0.000,     0.000,   1,    1,  0,     0.000,     0.000,   0
  3907,'1 ',   1,   2,   2,   296.295,   -41.984,     0.000,     0.000,     0.000,     0.000,   1,    1,  0,     0.000,     0.000,   0
  3908,'1 ',   1,   2,   2,   128.650,   -16.459,     0.000,     0.000,     0.000,     0.000,   1,    1,  0,     0.000,     0.000,   0
  3909,'1 ',   1,   2,   2,   109.731,   -26.453,     0.000,     0.000,     0.000,     0.000,   1,    1,  0,     0.000,     0.000,   0
  3910,'1 ',   1,   2,   2,   157.267,   -23.506,     0.000,     0.000,     0.000,     0.000,   1,    1,  0,     0.000,     0.000,   0
  3911,'1 ',   1,   2,   2,   140.697,   -27.694,     0.000,     0.000,     0.000,     0.000,   1,    1,  0,     0.000,     0.000,   0
  3912,'1 ',   1,   2,   2,   108.031,     0.392,     0.000,     0.000,     0.000,     0.000,   1,    1,  0,     0.000,     0.000,   0
  3913,'1 ',   1,   2,   2,   207.225,   -27.719,     0.000,     0.000,     0.000,     0.000,   1,    1,  0,     0.000,     0.000,   0
  3914,'1 ',   1,   2,   2,   142.678,   -33.283,     0.000,     0.000,     0.000,     0.000,   1,    1,  0,     0.000,     0.000,   0
  3915,'1 ',   1,   2,   2,   158.928,   -33.621,     0.000,     0.000,     0.000,     0.000,   1,    1,  0,     0.000,     0.000,   0
  3916,'1 ',   1,   2,   2,    96.221,     0.000,     0.000,     0.000,     0.000,     0.000,   1,    1,  0,     0.000,     0.000,   0
  3917,'1 ',   1,   2,   2,   147.437,   -27.206,     0.000,     0.000,     0.000,     0.000,   1,    1,  0,     0.000,     0.000,   0
  3918,'1 ',   1,   2,   2,   199.337,   -47.473,     0.000,     0.000,     0.000,     0.000,   1,    1,  0,     0.000,     0.000,   0
  3919,'1 ',   1,   2,   2,   118.186,   -15.955,     0.000,     0.000,     0.000,     0.000,   1,    1,  0,     0.000,     0.000,   0
  3920,'1 ',   1,   2,   2,   109.344,   -15.354,     0.000,     0.000,     0.000,     0.000,   1,    1,  0,     0.000,     0.000,   0
  3921,'1 ',   1,   2,   2,    87.376,   -18.845,     0.000,     0.000,     0.000,     0.000,   1,    1,  0,     0.000,     0.000,   0
  3922,'1 ',   1,   2,   2,   159.592,   -20.427,     0.000,     0.000,     0.000,     0.000,   1,    1,  0,     0.000,     0.000,   0
  3923,'1 ',   1,   2,   2,   243.334,   -40.218,     0.000,     0.000,     0.000,     0.000,   1,    1,  0,     0.000,     0.000,   0
  3924,'1 ',   1,   2,   2,   206.636,   -29.401,     0.000,     0.000,     0.000,     0.000,   1,    1,  0,     0.000,     0.000,   0
  3926,'1 ',   1,   2,   2,   168.129,   -10.639,     0.000,     0.000,     0.000,     0.000,   1,    1,  0,     0.000,     0.000,   0
  4002,'1 ',   1,   3,  11,   157.394,   -18.800,     0.000,     0.000,     0.000,     0.000,   1,    1,  0,     0.000,     0.000,   0
  4004,'1 ',   1,   3,  11,   252.821,   -30.279,     0.000,     0.000,     0.000,     0.000,   1,    1,  0,     0.000,     0.000,   0
  4005,'1 ',   1,   3,  11,   452.862,  -137.485,     0.000,     0.000,     0.000,     0.000,   1,    1,  0,     0.000,     0.000,   0
  4008,'1 ',   1,   3,  11,   270.065,   -32.755,     0.000,     0.000,     0.000,     0.000,   1,    1,  0,     0.000,     0.000,   0
  4009,'1 ',   1,   3,  11,  2083.373,  -376.768,     0.000,     0.000,     0.000,     0.000,   1,    1,  0,     0.000,     0.000,   0
  4010,'1 ',   1,   3,  11,  1794.339,     0.000,     0.000,     0.000,     0.000,     0.000,   1,    1,  0,     0.000,     0.000,   0
  4101,'1 ',   1,   3,  13,   898.611,  -103.908,     0.000,     0.000,     0.000,     0.000,   1,    1,  0,     0.000,     0.000,   0
  4102,'1 ',   1,   3,  13,   446.748,   -58.231,     0.000,     0.000,     0.000,     0.000,   1,    1,  0,     0.000,     0.000,   0
  4103,'1 ',   1,   3,  13,    11.007,    -1.327,     0.000,     0.000,     0.000,     0.000,   1,    1,  0,     0.000,     0.000,   0
  4104,'1 ',   1,   3,  13,  2470.330,  -309.143,     0.000,     0.000,     0.000,     0.000,   1,    1,  0,     0.000,     0.000,   0
  4201,'1 ',   1,   3,  13,  5241.439,  -374.389,     0.000,     0.000,     0.000,     0.000,   1,    1,  0,     0.000,     0.000,   0
  4202,'1 ',   1,   3,  13,  4380.634,  -539.111,     0.000,     0.000,     0.000,     0.000,   1,    1,  0,     0.000,     0.000,   0
  4203,'1 ',   1,   3,  13,  4388.990,  -563.244,     0.000,     0.000,     0.000,     0.000,   1,    1,  0,     0.000,     0.000,   0
  4204,'1 ',   1,   3,  13,   967.386,  -118.120,     0.000,     0.000,     0.000,     0.000,   1,    1,  0,     0.000,     0.000,   0
  5001,'1 ',   1,   3,   4,  6125.810, -1325.933,     0.000,     0.000,     0.000,     0.000,   1,    1,  0,     0.000,     0.000,   0
  5002,'1 ',   1,   3,   1,  7646.438,  -945.307,     0.000,     0.000,     0.000,     0.000,   1,    1,  0,     0.000,     0.000,   0
  5003,'1 ',   1,   3,   1,   500.419,   -62.524,     0.000,     0.000,     0.000,     0.000,   1,    1,  0,     0.000,     0.000,   0
  6102,'1 ',   1,   3,   6,   561.383,   178.691,     0.000,     0.000,     0.000,     0.000,   1,    1,  0,     0.000,     0.000,   0
  6103,'1 ',   1,   3,   6,   212.181,   -27.289,     0.000,     0.000,     0.000,     0.000,   1,    1,  0,     0.000,     0.000,   0
  6104,'1 ',   1,   3,   6,   924.401,  -119.771,     0.000,     0.000,     0.000,     0.000,   1,    1,  0,     0.000,     0.000,   0
  6201,'1 ',   1,   3,   8,    90.913,   -11.192,     0.000,     0.000,     0.000,     0.000,   1,    1,  0,     0.000,     0.000,   0
  6202,'1 ',   1,   3,   8,    38.075,    -5.321,     0.000,     0.000,     0.000,     0.000,   1,    1,  0,     0.000,     0.000,   0
  6203,'1 ',   1,   3,   8,   285.256,   -67.248,     0.000,     0.000,     0.000,     0.000,   1,    1,  0,     0.000,     0.000,   0
  6204,'1 ',   1,   3,   8,   312.556,   -66.757,     0.000,     0.000,     0.000,     0.000,   1,    1,  0,     0.000,     0.000,   0
  6205,'1 ',   1,   3,   8,   218.180,   -36.669,     0.000,     0.000,     0.000,     0.000,   1,    1,  0,     0.000,     0.000,   0
  6301,'1 ',   1,   3,  14,   238.157,   -30.603,     0.000,     0.000,     0.000,     0.000,   1,    1,  0,     0.000,     0.000,   0
  6302,'1 ',   1,   3,  14,   275.505,   -35.741,     0.000,     0.000,     0.000,     0.000,   1,    1,  0,     0.000,     0.000,   0
  6303,'1 ',   1,   3,  14,   339.388,   -42.988,     0.000,     0.000,     0.000,     0.000,   1,    1,  0,     0.000,     0.000,   0
  6305,'1 ',   1,   3,  14,    26.605,    -8.231,     0.000,     0.000,     0.000,     0.000,   1,    1,  0,     0.000,     0.000,   0
  6401,'1 ',   1,   1,   9,   967.444,  -122.876,     0.000,     0.000,     0.000,     0.000,   1,    1,  0,     0.000,     0.000,   0
  6402,'1 ',   1,   1,   9,   160.918,   -20.874,     0.000,     0.000,     0.000,     0.000,   1,    1,  0,     0.000,     0.000,   0
  6403,'1 ',   1,   1,   9,     1.176,    -0.131,     0.000,     0.000,     0.000,     0.000,   1,    1,  0,     0.000,     0.000,   0
  6404,'1 ',   1,   1,   9,    16.337,    -2.019,     0.000,     0.000,     0.000,     0.000,   1,    1,  0,     0.000,     0.000,   0
  6501,'1 ',   1,   3,  12,    90.381,   -29.259,     0.000,     0.000,     0.000,     0.000,   1,    1,  0,     0.000,     0.000,   0
  6502,'1 ',   1,   3,  12,   720.734,  -127.308,     0.000,     0.000,     0.000,     0.000,   1,    1,  0,     0.000,     0.000,   0
  6503,'1 ',   1,   3,  12,   193.947,   -59.693,     0.000,     0.000,     0.000,     0.000,   1,    1,  0,     0.000,     0.000,   0
  6504,'1 ',   1,   3,  12,   137.526,   -17.740,     0.000,     0.000,     0.000,     0.000,   1,    1,  0,     0.000,     0.000,   0
  6505,'1 ',   1,   3,  12,     3.069,    -0.972,     0.000,     0.000,     0.000,     0.000,   1,    1,  0,     0.000,     0.000,   0
  6507,'1 ',   1,   3,  12,   247.139,    27.369,     0.000,     0.000,     0.000,     0.000,   1,    1,  0,     0.000,     0.000,   0
  6508,'1 ',   1,   3,  12,    60.395,   -19.368,     0.000,     0.000,     0.000,     0.000,   1,    1,  0,     0.000,     0.000,   0
  6509,'1 ',   1,   3,  12,     3.977,    -1.289,     0.000,     0.000,     0.000,     0.000,   1,    1,  0,     0.000,     0.000,   0
  6510,'1 ',   1,   3,  12,   923.280,    52.388,     0.000,     0.000,     0.000,     0.000,   1,    1,  0,     0.000,     0.000,   0
  7001,'1 ',   1,   3,   5,  3213.654,  -347.583,     0.000,     0.000,     0.000,     0.000,   1,    1,  0,     0.000,     0.000,   0
  7002,'1 ',   1,   3,   5,  1178.531,    62.749,     0.000,     0.000,     0.000,     0.000,   1,    1,  0,     0.000,     0.000,   0
  8003,'1 ',   1,   2,   2,   177.132,   -21.495,     0.000,     0.000,     0.000,     0.000,   1,    1,  0,     0.000,     0.000,   0
  8004,'1 ',   1,   2,   2,  1105.114,  -144.156,     0.000,     0.000,     0.000,     0.000,   1,    1,  0,     0.000,     0.000,   0
  8005,'1 ',   1,   2,   2,   393.285,   -52.349,     0.000,     0.000,     0.000,     0.000,   1,    1,  0,     0.000,     0.000,   0
0 / END OF LOAD DATA, BEGIN FIXED SHUNT DATA
@!   I,'ID',STATUS,  GL,        BL
0 / END OF FIXED SHUNT DATA, BEGIN GENERATOR DATA
@!   I,'ID',      PG,        QG,        QT,        QB,     VS,    IREG,     MBASE,     ZR,         ZX,         RT,         XT,     GTAP,STAT, RMPCT,      PT,        PB,    O1,    F1,  O2,    F2,  O3,    F3,  O4,    F4,WMOD, WPF,NREG
  1003,'AD',     0.000,  -318.768, 99999.000,-99999.000,1.00000,  1003,   100.000, 0.00000E+0, 1.00000E+0, 0.00000E+0, 0.00000E+0,1.00000,1,  100.0, 99999.000,-99999.000,   1,1.0000
  1004,'AD',     0.000,  -222.803, 99999.000,-99999.000,1.00000,  1004,   100.000, 0.00000E+0, 1.00000E+0, 0.00000E+0, 0.00000E+0,1.00000,1,  100.0, 99999.000,-99999.000,   1,1.0000
  1032,'AD',     0.000,   416.204, 99999.000,-99999.000,1.01400,  1002,   100.000, 0.00000E+0, 1.00000E+0, 0.00000E+0, 0.00000E+0,1.00000,1,  100.0, 99999.000,-99999.000,   1,1.0000
  1032,'C ',   174.600,   200.000,   200.000,  -200.000,1.01400,  1002,   895.617, 0.00000E+0, 2.00000E-1, 0.00000E+0, 0.00000E+0,1.00000,1,  100.0,   873.000,     0.000,   1,1.0000
  1032,'G ',     0.000,   344.074,   357.000,  -357.000,1.01400,  1002,  1109.031, 0.00000E+0, 2.00000E-1, 0.00000E+0, 0.00000E+0,1.00000,0,  100.0,  1050.000,     0.000,   1,1.0000
  1032,'S ',   632.683,   255.200,   255.200,  -255.200,1.01400,  1002,   687.147, 0.00000E+0, 2.00000E-1, 0.00000E+0, 0.00000E+0,1.00000,1,  100.0,   638.000,     0.000,   1,1.0000,   0,   1.0,   0,   1.0,   0,   1.0, 1, 1.0000
  1034,'C ',   744.000,   -77.706,   500.000,  -500.000,1.03000,  1004,  2007.271, 0.00000E+0, 2.00000E-1, 0.00000E+0, 0.00000E+0,1.00000,1,  100.0,  1944.000,     0.000,   1,1.0000
  1034,'G ',     0.000,   168.193,   918.000,  -918.000,1.03000,  1004,  2851.793, 0.00000E+0, 2.00000E-1, 0.00000E+0, 0.00000E+0,1.00000,0,  100.0,  2700.000,     0.000,   1,1.0000
  1034,'W ',  1389.234,  -145.097,   672.800,  -672.800,1.03000,  1004,  1811.569, 0.00000E+0, 2.00000E-1, 0.00000E+0, 0.00000E+0,1.00000,1,  100.0,  1682.000,     0.000,   1,1.0000,   0,   1.0,   0,   1.0,   0,   1.0, 1, 1.0000
  1101,'AD',     0.000,    29.971, 99999.000,-99999.000,1.00000,  1101,   100.000, 0.00000E+0, 1.00000E+0, 0.00000E+0, 0.00000E+0,1.00000,1,  100.0, 99999.000,-99999.000,   1,1.0000
  1102,'AD',     0.000,    13.675, 99999.000,-99999.000,1.00000,  1102,   100.000, 0.00000E+0, 1.00000E+0, 0.00000E+0, 0.00000E+0,1.00000,1,  100.0, 99999.000,-99999.000,   1,1.0000
  1131,'C ',   253.600,    29.971,   308.000,  -308.000,1.01000,  1101,  1304.871, 0.00000E+0, 2.00000E-1, 0.00000E+0, 0.00000E+0,1.00000,1,  100.0,  1268.000,     0.000,   1,1.0000
  1131,'G ',     0.000,   121.365,  1916.000, -1916.000,1.01000,  1101,  5292.958, 0.00000E+0, 2.00000E-1, 0.00000E+0, 0.00000E+0,1.00000,0,  100.0,  4934.000,     0.000,   1,1.0000
  1201,'AD',     0.000,  -545.357, 99999.000,-99999.000,1.00000,  1201,   100.000, 0.00000E+0, 1.00000E+0, 0.00000E+0, 0.00000E+0,1.00000,1,  100.0, 99999.000,-99999.000,   1,1.0000
  1202,'AD',     0.000,-16518.523, 99999.000,-99999.000,1.00000,  1202,   100.000, 0.00000E+0, 1.00000E+0, 0.00000E+0, 0.00000E+0,1.00000,1,  100.0, 99999.000,-99999.000,   1,1.0000
  1232,'C ',   721.939,  9857.549,  1208.000, -1208.000,1.08000,  1202,  5121.503, 0.00000E+0, 2.00000E-1, 0.00000E+0, 0.00000E+0,1.00000,1,  100.0,  4977.000,     0.000,   1,1.0000
  1232,'H ',   543.872,  7426.169,   479.600,  -479.600,1.08000,  1202,  1291.363, 0.00000E+0, 2.00000E-1, 0.00000E+0, 0.00000E+0,1.00000,1,  100.0,  1199.000,     0.000,   1,1.0000
  1301,'AD',     0.000,  -131.390, 99999.000,-99999.000,1.00000,  1301,   100.000, 0.00000E+0, 1.00000E+0, 0.00000E+0, 0.00000E+0,1.00000,1,  100.0, 99999.000,-99999.000,   1,1.0000
  1302,'AD',     0.000,  -211.859, 99999.000,-99999.000,1.00000,  1302,   100.000, 0.00000E+0, 1.00000E+0, 0.00000E+0, 0.00000E+0,1.00000,1,  100.0, 99999.000,-99999.000,   1,1.0000
  1331,'G ',     0.000,    37.119,   841.000,  -841.000,1.04500,  1301,  2324.472, 0.00000E+0, 2.00000E-1, 0.00000E+0, 0.00000E+0,1.00000,0,  100.0,  2167.000,     0.000,   1,1.0000
  1331,'H ',  1201.140,  -131.390,   931.200,  -931.200,1.04500,  1301,  2507.333, 0.00000E+0, 2.00000E-1, 0.00000E+0, 0.00000E+0,1.00000,1,  100.0,  2328.000,     0.000,   1,1.0000
  1333,'C ',    83.600,    -5.138,   167.200,  -167.200,1.00500,  1303,   450.200, 0.00000E+0, 2.00000E-1, 0.00000E+0, 0.00000E+0,1.00000,1,  100.0,   418.000,     0.000,   1,1.0000
  1333,'G ',   909.298,   -55.882,  2746.000, -2746.000,1.00500,  1303,  7529.584, 0.00000E+0, 2.00000E-1, 0.00000E+0, 0.00000E+0,1.00000,1,  100.0,  7011.000,     0.000,   1,1.0000
  1333,'S ',  2066.845,  -127.021,   969.200,  -969.200,1.00500,  1303,  2609.651, 0.00000E+0, 2.00000E-1, 0.00000E+0, 0.00000E+0,1.00000,1,  100.0,  2423.000,     0.000,   1,1.0000,   0,   1.0,   0,   1.0,   0,   1.0, 1, 1.0000
  1401,'AD',     0.000,  -489.460, 99999.000,-99999.000,1.00000,  1401,   100.000, 0.00000E+0, 1.00000E+0, 0.00000E+0, 0.00000E+0,1.00000,1,  100.0, 99999.000,-99999.000,   1,1.0000
  1402,'AD',     0.000,   -13.548, 99999.000,-99999.000,1.00000,  1402,   100.000, 0.00000E+0, 1.00000E+0, 0.00000E+0, 0.00000E+0,1.00000,1,  100.0, 99999.000,-99999.000,   1,1.0000
  1403,'AD',     0.000,    -4.481, 99999.000,-99999.000,1.00000,  1403,   100.000, 0.00000E+0, 1.00000E+0, 0.00000E+0, 0.00000E+0,1.00000,1,  100.0, 99999.000,-99999.000,   1,1.0000
  1431,'G ',     0.000,   797.425,  3559.000, -3559.000,1.03500,  1401,  9836.432, 0.00000E+0, 2.00000E-1, 0.00000E+0, 0.00000E+0,1.00000,0,  100.0,  9170.000,     0.000,   1,1.0000
  1431,'N ',  2763.484,  -489.460,  1684.000, -1684.000,1.03500,  1401,  4534.309, 0.00000E+0, 2.00000E-1, 0.00000E+0, 0.00000E+0,1.00000,1,  100.0,  4210.000,     0.000,   1,1.0000
  1431,'S ',     0.000,   210.356,   967.600,  -967.600,1.03500,  1401,  2605.343, 0.00000E+0, 2.00000E-1, 0.00000E+0, 0.00000E+0,1.00000,0,  100.0,  2419.000,     0.000,   1,1.0000,   0,   1.0,   0,   1.0,   0,   1.0, 1, 1.0000
  2000,'AD',     0.000,    -3.417, 99999.000,-99999.000,1.00000,  2000,   100.000, 0.00000E+0, 1.00000E+0, 0.00000E+0, 0.00000E+0,1.00000,1,  100.0, 99999.000,-99999.000,   1,1.0000
  2030,'E ',     0.000,    76.883,   279.600,  -279.600,1.00000,  2000,   752.846, 0.00000E+0, 2.00000E-1, 0.00000E+0, 0.00000E+0,1.00000,0,  100.0,   699.000,     0.000,   1,1.0000
  2030,'G ',     0.000,   235.477,   856.000,  -856.000,1.00000,  2000,  2304.851, 0.00000E+0, 2.00000E-1, 0.00000E+0, 0.00000E+0,1.00000,0,  100.0,  2140.000,     0.000,   1,1.0000
  2100,'AD',     0.000,   -37.286, 99999.000,-99999.000,1.00000,  2100,   100.000, 0.00000E+0, 1.00000E+0, 0.00000E+0, 0.00000E+0,1.00000,1,  100.0, 99999.000,-99999.000,   1,1.0000
  2130,'E ',     0.000,    77.441,   254.000,  -254.000,1.03500,  2100,   868.952, 0.00000E+0, 2.00000E-1, 0.00000E+0, 0.00000E+0,1.00000,0,  100.0,   831.000,     0.000,   1,1.0000
  2130,'G ',     0.000,    54.601,   200.000,  -200.000,1.03500,  2100,   619.190, 0.00000E+0, 2.00000E-1, 0.00000E+0, 0.00000E+0,1.00000,0,  100.0,   586.000,     0.000,   1,1.0000
  2130,'H ',   351.044,   -28.163,   158.400,  -158.400,1.03500,  2100,   426.505, 0.00000E+0, 2.00000E-1, 0.00000E+0, 0.00000E+0,1.00000,1,  100.0,   396.000,     0.000,   1,1.0000
  2130,'S ',   113.722,    -9.123,    46.000,   -46.000,1.03500,  2100,   123.859, 0.00000E+0, 2.00000E-1, 0.00000E+0, 0.00000E+0,1.00000,1,  100.0,   115.000,     0.000,   1,1.0000,   0,   1.0,   0,   1.0,   0,   1.0, 1, 1.0000
  2201,'AD',     0.000,   -57.825, 99999.000,-99999.000,1.00000,  2201,   100.000, 0.00000E+0, 1.00000E+0, 0.00000E+0, 0.00000E+0,1.00000,1,  100.0, 99999.000,-99999.000,   1,1.0000
  2203,'AD',     0.000,     7.501, 99999.000,-99999.000,1.00000,  2203,   100.000, 0.00000E+0, 1.00000E+0, 0.00000E+0, 0.00000E+0,1.00000,1,  100.0, 99999.000,-99999.000,   1,1.0000
  2233,'DG',     0.000,   136.789,   304.000,  -304.000,1.00500,  2203,  1078.722, 0.00000E+0, 2.00000E-1, 0.00000E+0, 0.00000E+0,1.00000,0,  100.0,  1035.000,     0.000,   1,1.0000
  2233,'EG',     0.000,   242.861,   611.000,  -611.000,1.00500,  2203,  1935.947, 0.00000E+0, 2.00000E-1, 0.00000E+0, 0.00000E+0,1.00000,0,  100.0,  1837.000,     0.000,   1,1.0000
  2233,'TG',     0.000,    96.952,   206.000,  -206.000,1.00500,  2203,   761.397, 0.00000E+0, 2.00000E-1, 0.00000E+0, 0.00000E+0,1.00000,0,  100.0,   733.000,     0.000,   1,1.0000
  2301,'AD',     0.000,  -622.771, 99999.000,-99999.000,1.00000,  2301,   100.000, 0.00000E+0, 1.00000E+0, 0.00000E+0, 0.00000E+0,1.00000,1,  100.0, 99999.000,-99999.000,   1,1.0000
  2332,'S ',  1318.432,   533.200,   533.200,  -533.200,1.03500,  2302,  1435.685, 0.00000E+0, 2.00000E-1, 0.00000E+0, 0.00000E+0,1.00000,1,  100.0,  1333.000,     0.000,   1,1.0000,   0,   1.0,   0,   1.0,   0,   1.0, 1, 1.0000
  2400,'AD',     0.000,  -160.835, 99999.000,-99999.000,1.00000,  2400,   100.000, 0.00000E+0, 1.00000E+0, 0.00000E+0, 0.00000E+0,1.00000,1,  100.0, 99999.000,-99999.000,   1,1.0000
  2401,'AD',     0.000,  -553.291, 99999.000,-99999.000,1.00000,  2401,   100.000, 0.00000E+0, 1.00000E+0, 0.00000E+0, 0.00000E+0,1.00000,1,  100.0, 99999.000,-99999.000,   1,1.0000
  2402,'AD',     0.000,  -457.078, 99999.000,-99999.000,1.00000,  2402,   100.000, 0.00000E+0, 1.00000E+0, 0.00000E+0, 0.00000E+0,1.00000,1,  100.0, 99999.000,-99999.000,   1,1.0000
  2403,'AD',     0.000,   -25.206, 99999.000,-99999.000,1.00000,  2403,   100.000, 0.00000E+0, 1.00000E+0, 0.00000E+0, 0.00000E+0,1.00000,1,  100.0, 99999.000,-99999.000,   1,1.0000
  2404,'AD',     0.000,   332.448, 99999.000,-99999.000,1.00000,  2404,   100.000, 0.00000E+0, 1.00000E+0, 0.00000E+0, 0.00000E+0,1.00000,1,  100.0, 99999.000,-99999.000,   1,1.0000
  2405,'AD',     0.000,   -90.438, 99999.000,-99999.000,1.00000,  2405,   100.000, 0.00000E+0, 1.00000E+0, 0.00000E+0, 0.00000E+0,1.00000,1,  100.0, 99999.000,-99999.000,   1,1.0000
  2406,'AD',     0.000,   145.262, 99999.000,-99999.000,1.00000,  2406,   100.000, 0.00000E+0, 1.00000E+0, 0.00000E+0, 0.00000E+0,1.00000,1,  100.0, 99999.000,-99999.000,   1,1.0000
  2407,'AD',     0.000,   190.843, 99999.000,-99999.000,1.00000,  2407,   100.000, 0.00000E+0, 1.00000E+0, 0.00000E+0, 0.00000E+0,1.00000,1,  100.0, 99999.000,-99999.000,   1,1.0000
  2408,'AD',     0.000,    76.710, 99999.000,-99999.000,1.00000,  2408,   100.000, 0.00000E+0, 1.00000E+0, 0.00000E+0, 0.00000E+0,1.00000,1,  100.0, 99999.000,-99999.000,   1,1.0000
  2410,'AD',     0.000,    78.290, 99999.000,-99999.000,1.00000,  2410,   100.000, 0.00000E+0, 1.00000E+0, 0.00000E+0, 0.00000E+0,1.00000,1,  100.0, 99999.000,-99999.000,   1,1.0000
  2431,'S ',     0.000,   367.573,   666.400,  -666.400,1.05000,  2431,  1794.337, 0.00000E+0, 2.00000E-1, 0.00000E+0, 0.00000E+0,1.00000,0,  100.0,  1666.000,     0.000,   1,1.0000,   0,   1.0,   0,   1.0,   0,   1.0, 1, 1.0000
  2434,'S ',     0.000,  -213.713,   500.000,  -500.000,1.02000,  2434,  1570.707, 0.00000E+0, 2.00000E-1, 0.00000E+0, 0.00000E+0,1.00000,0,  100.0,  1489.000,     0.000,   1,1.0000,   0,   1.0,   0,   1.0,   0,   1.0, 1, 1.0000
  2438,'EG',     0.000,    29.463,   728.000,  -728.000,1.00900,  2408,  2404.838, 0.00000E+0, 2.00000E-1, 0.00000E+0, 0.00000E+0,1.00000,0,  100.0,  2292.000,     0.000,   1,1.0000
  2438,'ND',     0.000,     0.000,     0.500,    -0.500,1.00900,  2408,     0.500, 0.00000E+0, 2.00000E-1, 0.00000E+0, 0.00000E+0,1.00000,0,  100.0,     0.000, -1006.000,   1,1.0000
  2438,'RG',     0.000,    70.054,  1902.000, -1902.000,1.00900,  2408,  5773.301, 0.00000E+0, 2.00000E-1, 0.00000E+0, 0.00000E+0,1.00000,0,  100.0,  5451.000,     0.000,   1,1.0000
  2438,'S ',  1133.740,    17.542,   458.400,  -458.400,1.00900,  2408,  1234.280, 0.00000E+0, 2.00000E-1, 0.00000E+0, 0.00000E+0,1.00000,1,  100.0,  1146.000,     0.000,   1,1.0000,   0,   1.0,   0,   1.0,   0,   1.0, 1, 1.0000
  2438,'SG',     0.000,    52.775,  1644.000, -1644.000,1.00900,  2408,  4426.605, 0.00000E+0, 2.00000E-1, 0.00000E+0, 0.00000E+0,1.00000,0,  100.0,  4110.000,     0.000,   1,1.0000
  2438,'SH',  1302.109,    20.147,   584.000,  -584.000,1.00900,  2408,  1572.468, 0.00000E+0, 2.00000E-1, 0.00000E+0, 0.00000E+0,1.00000,1,  100.0,  1460.000,     0.000,   1,1.0000
  2438,'SW',  2521.883,    39.021,   561.000,  -561.000,1.00900,  2408,  3258.653, 0.00000E+0, 2.00000E-1, 0.00000E+0, 0.00000E+0,1.00000,1,  100.0,  3210.000,     0.000,   1,1.0000,   0,   1.0,   0,   1.0,   0,   1.0, 1, 1.0000
  2438,'WG',     0.000,    74.740,  1910.000, -1910.000,1.00900,  2408,  6122.547, 0.00000E+0, 2.00000E-1, 0.00000E+0, 0.00000E+0,1.00000,0,  100.0,  5817.000,     0.000,   1,1.0000
  2439,'S ',  1647.792,   666.400,   666.400,  -666.400,1.02000,  2409,  1794.337, 0.00000E+0, 2.00000E-1, 0.00000E+0, 0.00000E+0,1.00000,1,  100.0,  1666.000,     0.000,   1,1.0000,   0,   1.0,   0,   1.0,   0,   1.0, 1, 1.0000
  2501,'AD',     0.000,   134.234, 99999.000,-99999.000,1.00000,  2501,   100.000, 0.00000E+0, 1.00000E+0, 0.00000E+0, 0.00000E+0,1.00000,1,  100.0, 99999.000,-99999.000,   1,1.0000
  2503,'AD',     0.000,   -46.456, 99999.000,-99999.000,1.00000,  2503,   100.000, 0.00000E+0, 1.00000E+0, 0.00000E+0, 0.00000E+0,1.00000,1,  100.0, 99999.000,-99999.000,   1,1.0000
  2533,'S ',  1977.153,   -46.456,   799.600,  -799.600,1.00900,  2503,  2152.989, 0.00000E+0, 2.00000E-1, 0.00000E+0, 0.00000E+0,1.00000,1,  100.0,  1999.000,     0.000,   1,1.0000,   0,   1.0,   0,   1.0,   0,   1.0, 1, 1.0000
  2600,'AD',     0.000,  -143.508, 99999.000,-99999.000,1.00000,  2600,   100.000, 0.00000E+0, 1.00000E+0, 0.00000E+0, 0.00000E+0,1.00000,1,  100.0, 99999.000,-99999.000,   1,1.0000
  2601,'AD',     0.000,  -132.215, 99999.000,-99999.000,1.00000,  2601,   100.000, 0.00000E+0, 1.00000E+0, 0.00000E+0, 0.00000E+0,1.00000,1,  100.0, 99999.000,-99999.000,   1,1.0000
  2602,'AD',     0.000,   -11.065, 99999.000,-99999.000,1.00000,  2602,   100.000, 0.00000E+0, 1.00000E+0, 0.00000E+0, 0.00000E+0,1.00000,1,  100.0, 99999.000,-99999.000,   1,1.0000
  2603,'AD',     0.000,  -176.762, 99999.000,-99999.000,1.00000,  2603,   100.000, 0.00000E+0, 1.00000E+0, 0.00000E+0, 0.00000E+0,1.00000,1,  100.0, 99999.000,-99999.000,   1,1.0000
  2604,'AD',     0.000,    29.373, 99999.000,-99999.000,1.00000,  2604,   100.000, 0.00000E+0, 1.00000E+0, 0.00000E+0, 0.00000E+0,1.00000,1,  100.0, 99999.000,-99999.000,   1,1.0000
  2608,'AD',     0.000,   -23.185, 99999.000,-99999.000,1.00000,  2608,   100.000, 0.00000E+0, 1.00000E+0, 0.00000E+0, 0.00000E+0,1.00000,1,  100.0, 99999.000,-99999.000,   1,1.0000
  2609,'AD',     0.000,   -29.801, 99999.000,-99999.000,1.00000,  2609,   100.000, 0.00000E+0, 1.00000E+0, 0.00000E+0, 0.00000E+0,1.00000,1,  100.0, 99999.000,-99999.000,   1,1.0000
  2610,'AD',     0.000,   -21.477, 99999.000,-99999.000,1.00000,  2610,   100.000, 0.00000E+0, 1.00000E+0, 0.00000E+0, 0.00000E+0,1.00000,1,  100.0, 99999.000,-99999.000,   1,1.0000
  2611,'AD',     0.000,   -34.730, 99999.000,-99999.000,1.00000,  2611,   100.000, 0.00000E+0, 1.00000E+0, 0.00000E+0, 0.00000E+0,1.00000,1,  100.0, 99999.000,-99999.000,   1,1.0000
  2613,'AD',     0.000,   -38.495, 99999.000,-99999.000,1.00000,  2613,   100.000, 0.00000E+0, 1.00000E+0, 0.00000E+0, 0.00000E+0,1.00000,1,  100.0, 99999.000,-99999.000,   1,1.0000
  2630,'G ',     0.000,   203.269,  1346.000, -1346.000,1.00400,  2610,  4170.195, 0.00000E+0, 2.00000E-1, 0.00000E+0, 0.00000E+0,1.00000,0,  100.0,  3947.000,     0.000,   1,1.0000
  2631,'S ',     0.000,    72.187,   208.000,  -208.000,1.01500,  2611,   560.057, 0.00000E+0, 2.00000E-1, 0.00000E+0, 0.00000E+0,1.00000,0,  100.0,   520.000,     0.000,   1,1.0000,   0,   1.0,   0,   1.0,   0,   1.0, 1, 1.0000
  2634,'C ',   323.600,    29.373,   647.200,  -647.200,1.03000,  2604,  1742.639, 0.00000E+0, 2.00000E-1, 0.00000E+0, 0.00000E+0,1.00000,1,  100.0,  1618.000,     0.000,   1,1.0000
  2637,'H ',    19.938,    34.800,    34.800,   -34.800,1.03000,  2612,    93.702, 0.00000E+0, 2.00000E-1, 0.00000E+0, 0.00000E+0,1.00000,1,  100.0,    87.000,     0.000,   1,1.0000
  2638,'H ',     0.000,    23.730,   100.000,  -100.000,1.01500,  2608,   419.105, 0.00000E+0, 2.00000E-1, 0.00000E+0, 0.00000E+0,1.00000,0,  100.0,   407.000,     0.000,   1,1.0000
  2901,'AD',     0.000,  -518.689, 99999.000,-99999.000,1.00000,  2901,   100.000, 0.00000E+0, 1.00000E+0, 0.00000E+0, 0.00000E+0,1.00000,1,  100.0, 99999.000,-99999.000,   1,1.0000
  2902,'AD',     0.000,  -259.185, 99999.000,-99999.000,1.00000,  2902,   100.000, 0.00000E+0, 1.00000E+0, 0.00000E+0, 0.00000E+0,1.00000,1,  100.0, 99999.000,-99999.000,   1,1.0000
  3101,'AD',     0.000,   -20.243, 99999.000,-99999.000,1.00000,  3101,   100.000, 0.00000E+0, 1.00000E+0, 0.00000E+0, 0.00000E+0,1.00000,1,  100.0, 99999.000,-99999.000,   1,1.0000
  3102,'AD',     0.000,    -1.843, 99999.000,-99999.000,1.00000,  3102,   100.000, 0.00000E+0, 1.00000E+0, 0.00000E+0, 0.00000E+0,1.00000,1,  100.0, 99999.000,-99999.000,   1,1.0000
  3103,'AD',     0.000,    -8.064, 99999.000,-99999.000,1.00000,  3103,   100.000, 0.00000E+0, 1.00000E+0, 0.00000E+0, 0.00000E+0,1.00000,1,  100.0, 99999.000,-99999.000,   1,1.0000
  3105,'AD',     0.000,   -25.438, 99999.000,-99999.000,1.00000,  3105,   100.000, 0.00000E+0, 1.00000E+0, 0.00000E+0, 0.00000E+0,1.00000,1,  100.0, 99999.000,-99999.000,   1,1.0000
  3133,'NG',     0.000,    24.800,    24.800,   -24.800,1.00000,  3103,    66.776, 0.00000E+0, 2.00000E-1, 0.00000E+0, 0.00000E+0,1.00000,0,  100.0,    62.000,     0.000,   1,1.0000
  3133,'SC',     0.000,     0.000,   500.000,  -500.000,1.00000,  3103,   500.000, 0.00000E+0, 2.00000E-1, 0.00000E+0, 0.00000E+0,1.00000,0,  100.0,     0.100,     0.000,   1,1.0000
  3135,'MG',   144.310,   -25.438,   216.400,  -216.400,1.00000,  3105,   582.675, 0.00000E+0, 2.00000E-1, 0.00000E+0, 0.00000E+0,1.00000,1,  100.0,   541.000,     0.000,   1,1.0000
  3135,'NG',     0.000,     6.381,    15.200,   -15.200,1.00000,  3105,    40.927, 0.00000E+0, 2.00000E-1, 0.00000E+0, 0.00000E+0,1.00000,0,  100.0,    38.000,     0.000,   1,1.0000
  3201,'AD',     0.000,  -202.676, 99999.000,-99999.000,1.00000,  3201,   100.000, 0.00000E+0, 1.00000E+0, 0.00000E+0, 0.00000E+0,1.00000,1,  100.0, 99999.000,-99999.000,   1,1.0000
  3202,'AD',     0.000,   -59.905, 99999.000,-99999.000,1.00000,  3202,   100.000, 0.00000E+0, 1.00000E+0, 0.00000E+0, 0.00000E+0,1.00000,1,  100.0, 99999.000,-99999.000,   1,1.0000
  3203,'AD',     0.000,  -262.288, 99999.000,-99999.000,1.00000,  3203,   100.000, 0.00000E+0, 1.00000E+0, 0.00000E+0, 0.00000E+0,1.00000,1,  100.0, 99999.000,-99999.000,   1,1.0000
  3204,'AD',     0.000,  -102.840, 99999.000,-99999.000,1.00000,  3204,   100.000, 0.00000E+0, 1.00000E+0, 0.00000E+0, 0.00000E+0,1.00000,1,  100.0, 99999.000,-99999.000,   1,1.0000
  3205,'AD',     0.000,    37.172, 99999.000,-99999.000,1.00000,  3205,   100.000, 0.00000E+0, 1.00000E+0, 0.00000E+0, 0.00000E+0,1.00000,1,  100.0, 99999.000,-99999.000,   1,1.0000
  3234,'DG',     0.000,    15.032,    70.800,   -70.800,1.01000,  3204,   190.635, 0.00000E+0, 2.00000E-1, 0.00000E+0, 0.00000E+0,1.00000,0,  100.0,   177.000,     0.000,   1,1.0000
  3234,'MG',     0.000,   326.797,  1244.000, -1244.000,1.01000,  3204,  4048.845, 0.00000E+0, 2.00000E-1, 0.00000E+0, 0.00000E+0,1.00000,0,  100.0,  3853.000,     0.000,   1,1.0000
  3234,'NG',     0.000,    87.878,   382.000,  -382.000,1.01000,  3204,  1105.121, 0.00000E+0, 2.00000E-1, 0.00000E+0, 0.00000E+0,1.00000,0,  100.0,  1037.000,     0.000,   1,1.0000
  3234,'NW',   717.934,  -102.840,   150.000,  -150.000,1.01000,  3204,  1746.453, 0.00000E+0, 2.00000E-1, 0.00000E+0, 0.00000E+0,1.00000,1,  100.0,  1740.000,     0.000,   1,1.0000,   0,   1.0,   0,   1.0,   0,   1.0, 1, 1.0000
...